
     RDKit          3D

 64 63  0  0  0  0  0  0  0  0999 V2000
   -6.0496   -1.2508    0.1383 N   0  0  0  0  0  0  0  0  0  0  0  0
   -5.2153   -0.0358    0.0403 C   0  0  0  0  0  0  0  0  0  0  0  0
   -5.9854    1.0813    0.7740 C   0  0  0  0  0  0  0  0  0  0  0  0
   -7.2073    1.0197    0.9464 O   0  0  0  0  0  0  0  0  0  0  0  0
   -5.0105    0.3644   -1.4303 C   0  0  0  0  0  0  0  0  0  0  0  0
   -3.6287    0.3490   -1.7698 O   0  0  0  0  0  0  0  0  0  0  0  0
   -3.3760    2.6742   -2.7297 O   0  0  0  0  0  0  0  0  0  0  0  0
   -1.3665    1.3167   -1.9459 O   0  0  0  0  0  0  0  0  0  0  0  0
   -3.0016    2.1924   -0.1766 O   0  0  0  0  0  0  0  0  0  0  0  0
   -0.6493    0.6495   -0.9209 C   0  0  0  0  0  0  0  0  0  0  0  0
    0.3819   -0.3209   -1.5429 C   0  0  0  0  0  0  0  0  0  0  0  0
    2.1277    0.1144    0.3481 C   0  0  0  0  0  0  0  0  0  0  0  0
    0.5580   -1.7166    0.4772 O   0  0  0  0  0  0  0  0  0  0  0  0
    3.2421    0.6022   -0.2925 N   0  0  0  0  0  0  0  0  0  0  0  0
    1.8166    0.4505    1.4899 O   0  0  0  0  0  0  0  0  0  0  0  0
    4.1413    1.5502    0.3368 C   0  0  0  0  0  0  0  0  0  0  0  0
    5.0521    0.9074    1.3761 C   0  0  0  0  0  0  0  0  0  0  0  0
    6.0280   -0.0720    0.7610 C   0  0  0  0  0  0  0  0  0  0  0  0
   -2.8815    1.7828   -1.6251 P   0  0  0  0  0  5  0  0  0  0  0  0
    6.7689   -0.7538    1.7043 N   0  0  0  0  0  0  0  0  0  0  0  0
    6.1701   -0.2389   -0.4458 O   0  0  0  0  0  0  0  0  0  0  0  0
    7.6773   -1.8217    1.3304 C   0  0  0  0  0  0  0  0  0  0  0  0
    8.9749   -1.3373    0.6792 C   0  0  0  0  0  0  0  0  0  0  0  0
    1.3058   -0.9231   -0.4492 C   0  0  0  0  0  0  0  0  0  0  0  0
   -0.3909   -1.4703   -2.2356 C   0  0  0  0  0  0  0  0  0  0  0  0
    1.2033    0.3980   -2.6352 C   0  0  0  0  0  0  0  0  0  0  0  0
    9.9639   -0.3202    1.8177 S   0  0  0  0  0  0  0  0  0  0  0  0
   -5.8754   -2.1381    1.1743 C   0  0  0  0  0  0  0  0  0  0  0  0
   -4.9269   -2.1365    1.9515 O   0  0  0  0  0  0  0  0  0  0  0  0
   -6.9839   -3.1528    1.2811 C   0  0  0  0  0  0  0  0  0  0  0  0
   -5.2162    2.1479    1.1717 N   0  0  0  0  0  0  0  0  0  0  0  0
   -5.7913    3.3546    1.6921 C   0  0  0  0  0  0  0  0  0  0  0  0
   -7.0139   -1.0857   -0.1245 H   0  0  0  0  0  0  0  0  0  0  0  0
   -4.2648   -0.2103    0.5567 H   0  0  0  0  0  0  0  0  0  0  0  0
   -5.4408    1.3445   -1.6609 H   0  0  0  0  0  0  0  0  0  0  0  0
   -5.4994   -0.3525   -2.1016 H   0  0  0  0  0  0  0  0  0  0  0  0
   -0.1525    1.4203   -0.3239 H   0  0  0  0  0  0  0  0  0  0  0  0
   -1.3377    0.1018   -0.2674 H   0  0  0  0  0  0  0  0  0  0  0  0
    0.2421   -1.1010    1.1730 H   0  0  0  0  0  0  0  0  0  0  0  0
    3.5740    0.1345   -1.1306 H   0  0  0  0  0  0  0  0  0  0  0  0
    4.7198    2.0268   -0.4635 H   0  0  0  0  0  0  0  0  0  0  0  0
    3.5348    2.3257    0.8228 H   0  0  0  0  0  0  0  0  0  0  0  0
    5.6372    1.6905    1.8754 H   0  0  0  0  0  0  0  0  0  0  0  0
    4.4615    0.3831    2.1370 H   0  0  0  0  0  0  0  0  0  0  0  0
    6.5417   -0.6377    2.6858 H   0  0  0  0  0  0  0  0  0  0  0  0
    7.1476   -2.4800    0.6325 H   0  0  0  0  0  0  0  0  0  0  0  0
    7.8896   -2.4064    2.2337 H   0  0  0  0  0  0  0  0  0  0  0  0
    8.7736   -0.7458   -0.2204 H   0  0  0  0  0  0  0  0  0  0  0  0
    9.5808   -2.2004    0.3870 H   0  0  0  0  0  0  0  0  0  0  0  0
    2.0205   -1.6107   -0.9186 H   0  0  0  0  0  0  0  0  0  0  0  0
    0.3008   -2.2019   -2.6686 H   0  0  0  0  0  0  0  0  0  0  0  0
   -1.0463   -2.0023   -1.5346 H   0  0  0  0  0  0  0  0  0  0  0  0
   -1.0225   -1.0920   -3.0485 H   0  0  0  0  0  0  0  0  0  0  0  0
    0.5868    0.6367   -3.5108 H   0  0  0  0  0  0  0  0  0  0  0  0
    2.0294   -0.2299   -2.9901 H   0  0  0  0  0  0  0  0  0  0  0  0
    1.6211    1.3436   -2.2698 H   0  0  0  0  0  0  0  0  0  0  0  0
    9.0922    0.6964    1.8815 H   0  0  0  0  0  0  0  0  0  0  0  0
   -6.5490   -4.1378    1.4717 H   0  0  0  0  0  0  0  0  0  0  0  0
   -7.5638   -3.2114    0.3572 H   0  0  0  0  0  0  0  0  0  0  0  0
   -7.6528   -2.8774    2.1018 H   0  0  0  0  0  0  0  0  0  0  0  0
   -4.2725    2.2253    0.7390 H   0  0  0  0  0  0  0  0  0  0  0  0
   -6.6600    3.1278    2.3167 H   0  0  0  0  0  0  0  0  0  0  0  0
   -5.0289    3.8776    2.2722 H   0  0  0  0  0  0  0  0  0  0  0  0
   -6.1045    3.9820    0.8499 H   0  0  0  0  0  0  0  0  0  0  0  0
  1  2  1  0
  2  3  1  0
  3  4  2  0
  2  5  1  0
  5  6  1  0
  6 19  1  0
 19  7  2  0
 19  8  1  0
 19  9  1  0
  8 10  1  0
 10 11  1  0
 11 24  1  0
 11 25  1  0
 11 26  1  0
 24 12  1  0
 24 13  1  0
 12 15  2  0
 12 14  1  0
 14 16  1  0
 16 17  1  0
 17 18  1  0
 18 21  2  0
 18 20  1  0
 20 22  1  0
 22 23  1  0
 23 27  1  0
 28 29  2  0
 28 30  1  0
 28  1  1  0
  3 31  1  0
 31 32  1  0
  1 33  1  0
  2 34  1  0
  5 35  1  0
  5 36  1  0
 10 37  1  0
 10 38  1  0
 13 39  1  0
 14 40  1  0
 16 41  1  0
 16 42  1  0
 17 43  1  0
 17 44  1  0
 20 45  1  0
 22 46  1  0
 22 47  1  0
 23 48  1  0
 23 49  1  0
 24 50  1  0
 25 51  1  0
 25 52  1  0
 25 53  1  0
 26 54  1  0
 26 55  1  0
 26 56  1  0
 27 57  1  0
 30 58  1  0
 30 59  1  0
 30 60  1  0
 31 61  1  0
 32 62  1  0
 32 63  1  0
 32 64  1  0
M  CHG  1   9  -1
M  END
>  <atom.dprop.PartialCharge>  (1) 
-0.52285314062499999 -0.013253140624999993 0.66314685937500006 -0.64105314062499996 0.16744685937500001 -0.59415314062499991 -0.82195314062499991 -0.58315314062500001 -0.82195314062499991
0.19044685937500003 -0.09795314062499999 0.66814685937500007 -0.645753140625 -0.55385314062499991 -0.66005314062499998 0.093046859375000013 -0.185353140625 0.65814685937500006
1.4428468593750001 -0.57085314062499992 -0.64105314062499996 0.096046859375000015 -0.020253140624999992 0.10314685937500001 -0.082553140624999993 -0.082553140624999993 -0.38285314062500003
0.65914685937500006 -0.63505314062499996 -0.183053140625 -0.54885314062500001 0.079346859374999995 0.330546859375 0.107746859375 0.042246859375000008 0.042246859375000008
0.035246859375000009 0.035246859375000009 0.48004685937499997 0.331546859375 0.061246859375000004 0.061246859375000004 0.078746859375000006 0.078746859375000006 0.35054685937499996
0.062746859375000019 0.062746859375000019 0.081746859375000008 0.081746859375000008 0.068746859374999997 0.038246859375000004 0.038246859375000004 0.038246859375000004 0.038246859375000004
0.038246859375000004 0.038246859375000004 0.20084685937500002 0.070746859374999999 0.070746859374999999 0.070746859374999999 0.33454685937500001 0.032413859375000006 0.032413859375000006
0.032413859375000006

$$$$
