
     RDKit          3D

 64 63  0  0  0  0  0  0  0  0999 V2000
   -6.0598   -1.2426    0.1374 N   0  0  0  0  0  0  0  0  0  0  0  0
   -5.2119   -0.0372    0.0446 C   0  0  0  0  0  0  0  0  0  0  0  0
   -5.9686    1.0875    0.7836 C   0  0  0  0  0  0  0  0  0  0  0  0
   -7.1911    1.0411    0.9582 O   0  0  0  0  0  0  0  0  0  0  0  0
   -5.0015    0.3651   -1.4237 C   0  0  0  0  0  0  0  0  0  0  0  0
   -3.6182    0.3494   -1.7563 O   0  0  0  0  0  0  0  0  0  0  0  0
   -3.3660    2.6774   -2.7127 O   0  0  0  0  0  0  0  0  0  0  0  0
   -1.3563    1.3058   -1.9528 O   0  0  0  0  0  0  0  0  0  0  0  0
   -2.9692    2.1864   -0.1623 O   0  0  0  0  0  0  0  0  0  0  0  0
   -0.6322    0.6400   -0.9321 C   0  0  0  0  0  0  0  0  0  0  0  0
    0.3748   -0.3537   -1.5578 C   0  0  0  0  0  0  0  0  0  0  0  0
    2.1290    0.0845    0.3184 C   0  0  0  0  0  0  0  0  0  0  0  0
    0.5623   -1.7470    0.4648 O   0  0  0  0  0  0  0  0  0  0  0  0
    3.2407    0.5724   -0.3291 N   0  0  0  0  0  0  0  0  0  0  0  0
    1.8173    0.4279    1.4599 O   0  0  0  0  0  0  0  0  0  0  0  0
    4.1262    1.5436    0.2842 C   0  0  0  0  0  0  0  0  0  0  0  0
    5.0333    0.9369    1.3468 C   0  0  0  0  0  0  0  0  0  0  0  0
    6.0268   -0.0436    0.7625 C   0  0  0  0  0  0  0  0  0  0  0  0
   -2.8661    1.7806   -1.6138 P   0  0  0  0  0  5  0  0  0  0  0  0
    6.7533   -0.7109    1.7272 N   0  0  0  0  0  0  0  0  0  0  0  0
    6.1941   -0.2212   -0.4391 O   0  0  0  0  0  0  0  0  0  0  0  0
    7.6811   -1.7748    1.3840 C   0  0  0  0  0  0  0  0  0  0  0  0
    8.9906   -1.2849    0.7605 C   0  0  0  0  0  0  0  0  0  0  0  0
    1.3060   -0.9581   -0.4700 C   0  0  0  0  0  0  0  0  0  0  0  0
   -0.4252   -1.4973   -2.2266 C   0  0  0  0  0  0  0  0  0  0  0  0
    1.1948    0.3406   -2.6673 C   0  0  0  0  0  0  0  0  0  0  0  0
    9.9406   -0.2413    1.9137 S   0  0  0  0  0  0  0  0  0  0  0  0
   -5.8970   -2.1408    1.1675 C   0  0  0  0  0  0  0  0  0  0  0  0
   -4.9599   -2.1465    1.9565 O   0  0  0  0  0  0  0  0  0  0  0  0
   -7.0030   -3.1584    1.2492 C   0  0  0  0  0  0  0  0  0  0  0  0
   -5.1858    2.1424    1.1885 N   0  0  0  0  0  0  0  0  0  0  0  0
   -5.7470    3.3611    1.6985 C   0  0  0  0  0  0  0  0  0  0  0  0
   -7.0185   -1.0747   -0.1392 H   0  0  0  0  0  0  0  0  0  0  0  0
   -4.2622   -0.2240    0.5610 H   0  0  0  0  0  0  0  0  0  0  0  0
   -5.4316    1.3482   -1.6518 H   0  0  0  0  0  0  0  0  0  0  0  0
   -5.4882   -0.3495   -2.1002 H   0  0  0  0  0  0  0  0  0  0  0  0
   -0.1141    1.4115   -0.3539 H   0  0  0  0  0  0  0  0  0  0  0  0
   -1.3199    0.1152   -0.2583 H   0  0  0  0  0  0  0  0  0  0  0  0
    0.2565   -1.1272    1.1619 H   0  0  0  0  0  0  0  0  0  0  0  0
    3.5726    0.1039   -1.1653 H   0  0  0  0  0  0  0  0  0  0  0  0
    4.7087    2.0060   -0.5213 H   0  0  0  0  0  0  0  0  0  0  0  0
    3.5070    2.3248    0.7436 H   0  0  0  0  0  0  0  0  0  0  0  0
    5.6029    1.7379    1.8336 H   0  0  0  0  0  0  0  0  0  0  0  0
    4.4416    0.4256    2.1154 H   0  0  0  0  0  0  0  0  0  0  0  0
    6.4749   -0.6146    2.6977 H   0  0  0  0  0  0  0  0  0  0  0  0
    7.1750   -2.4448    0.6787 H   0  0  0  0  0  0  0  0  0  0  0  0
    7.8776   -2.3468    2.2987 H   0  0  0  0  0  0  0  0  0  0  0  0
    8.8019   -0.7054   -0.1484 H   0  0  0  0  0  0  0  0  0  0  0  0
    9.6120   -2.1443    0.4897 H   0  0  0  0  0  0  0  0  0  0  0  0
    2.0179   -1.6498   -0.9396 H   0  0  0  0  0  0  0  0  0  0  0  0
    0.2494   -2.2500   -2.6508 H   0  0  0  0  0  0  0  0  0  0  0  0
   -1.0852   -2.0029   -1.5124 H   0  0  0  0  0  0  0  0  0  0  0  0
   -1.0547   -1.1221   -3.0413 H   0  0  0  0  0  0  0  0  0  0  0  0
    0.5748    0.5775   -3.5414 H   0  0  0  0  0  0  0  0  0  0  0  0
    2.0092   -0.3041   -3.0189 H   0  0  0  0  0  0  0  0  0  0  0  0
    1.6298    1.2854   -2.3207 H   0  0  0  0  0  0  0  0  0  0  0  0
    9.0532    0.7637    1.9457 H   0  0  0  0  0  0  0  0  0  0  0  0
   -6.5670   -4.1418    1.4542 H   0  0  0  0  0  0  0  0  0  0  0  0
   -7.5601   -3.2237    0.3084 H   0  0  0  0  0  0  0  0  0  0  0  0
   -7.6932   -2.8858    2.0538 H   0  0  0  0  0  0  0  0  0  0  0  0
   -4.2396    2.2086    0.7618 H   0  0  0  0  0  0  0  0  0  0  0  0
   -6.6252    3.1538    2.3161 H   0  0  0  0  0  0  0  0  0  0  0  0
   -4.9814    3.8745    2.2823 H   0  0  0  0  0  0  0  0  0  0  0  0
   -6.0365    3.9902    0.8499 H   0  0  0  0  0  0  0  0  0  0  0  0
  1  2  1  0
  2  3  1  0
  3  4  2  0
  2  5  1  0
  5  6  1  0
  6 19  1  0
 19  7  2  0
 19  8  1  0
 19  9  1  0
  8 10  1  0
 10 11  1  0
 11 24  1  0
 11 25  1  0
 11 26  1  0
 24 12  1  0
 24 13  1  0
 12 15  2  0
 12 14  1  0
 14 16  1  0
 16 17  1  0
 17 18  1  0
 18 21  2  0
 18 20  1  0
 20 22  1  0
 22 23  1  0
 23 27  1  0
 28 29  2  0
 28 30  1  0
 28  1  1  0
  3 31  1  0
 31 32  1  0
  1 33  1  0
  2 34  1  0
  5 35  1  0
  5 36  1  0
 10 37  1  0
 10 38  1  0
 13 39  1  0
 14 40  1  0
 16 41  1  0
 16 42  1  0
 17 43  1  0
 17 44  1  0
 20 45  1  0
 22 46  1  0
 22 47  1  0
 23 48  1  0
 23 49  1  0
 24 50  1  0
 25 51  1  0
 25 52  1  0
 25 53  1  0
 26 54  1  0
 26 55  1  0
 26 56  1  0
 27 57  1  0
 30 58  1  0
 30 59  1  0
 30 60  1  0
 31 61  1  0
 32 62  1  0
 32 63  1  0
 32 64  1  0
M  CHG  1   9  -1
M  END
>  <atom.dprop.PartialCharge>  (1) 
-0.53688434375000005 -0.011284343749999972 0.66211565625000002 -0.64208434375000001 0.16541565625000001 -0.59518434374999996 -0.82148434375000001 -0.57918434375000005 -0.82148434375000001
0.18341565625000003 -0.098984343749999981 0.66811565625000002 -0.63578434375000004 -0.55588434374999995 -0.65608434375000002 0.093015656250000023 -0.18438434374999998 0.65811565625000001
1.43581565625 -0.57188434374999997 -0.63908434375000001 0.095015656250000025 -0.020284343749999972 0.10611565625000002 -0.092584343749999978 -0.092584343749999978 -0.38188434374999997
0.65811565625000001 -0.63908434375000001 -0.18108434374999999 -0.55288434374999995 0.081315656250000021 0.34451565625000002 0.10771565625000003 0.043215656250000026 0.043215656250000026
0.043215656250000026 0.043215656250000026 0.46401565625000007 0.32951565625000007 0.062215656250000029 0.062215656250000029 0.07871565625000003 0.07871565625000003 0.34951565625000003
0.06371565625000003 0.06371565625000003 0.081215656250000018 0.081215656250000018 0.064715656250000017 0.042715656250000025 0.042715656250000025 0.042715656250000025 0.042715656250000025
0.042715656250000025 0.042715656250000025 0.20181565625000003 0.070048656250000021 0.070048656250000021 0.070048656250000021 0.33751565625000007 0.031048656250000028 0.031048656250000028
0.031048656250000028

$$$$
