
     RDKit          3D

 76 75  0  0  0  0  0  0  0  0999 V2000
   -7.2919    2.0107   -0.8321 N   0  0  0  0  0  0  0  0  0  0  0  0
   -7.7208    1.4516   -2.1021 C   0  0  0  0  0  0  0  0  0  0  0  0
   -8.3477    0.0535   -1.8694 C   0  0  0  0  0  0  0  0  0  0  0  0
   -9.3955   -0.1124   -1.2382 O   0  0  0  0  0  0  0  0  0  0  0  0
   -6.5860    1.4838   -3.1440 C   0  0  0  0  0  0  0  0  0  0  0  0
   -5.5203    0.5980   -2.7967 O   0  0  0  0  0  0  0  0  0  0  0  0
   -4.7431    1.7833   -0.7135 O   0  0  0  0  0  0  0  0  0  0  0  0
   -3.4024   -0.0966   -1.7562 O   0  0  0  0  0  0  0  0  0  0  0  0
   -3.5008    2.1191   -3.0222 O   0  0  0  0  0  0  0  0  0  0  0  0
   -2.0834    0.1156   -1.2866 C   0  0  0  0  0  0  0  0  0  0  0  0
   -1.5006   -1.1601   -0.6255 C   0  0  0  0  0  0  0  0  0  0  0  0
    0.7401   -2.0646    0.3500 C   0  0  0  0  0  0  0  0  0  0  0  0
    0.1509    0.2872    0.4645 O   0  0  0  0  0  0  0  0  0  0  0  0
    1.0540   -1.8037    1.6668 N   0  0  0  0  0  0  0  0  0  0  0  0
    1.0452   -3.1081   -0.2194 O   0  0  0  0  0  0  0  0  0  0  0  0
    1.6901   -2.7537    2.5542 C   0  0  0  0  0  0  0  0  0  0  0  0
    3.1092   -3.1321    2.1480 C   0  0  0  0  0  0  0  0  0  0  0  0
    4.0956   -1.9955    2.2958 C   0  0  0  0  0  0  0  0  0  0  0  0
   -4.2465    1.2606   -2.0375 P   0  0  0  0  0  5  0  0  0  0  0  0
    5.3298   -2.2919    1.7471 N   0  0  0  0  0  0  0  0  0  0  0  0
    3.8546   -0.9324    2.8590 O   0  0  0  0  0  0  0  0  0  0  0  0
    6.4432   -1.3632    1.8137 C   0  0  0  0  0  0  0  0  0  0  0  0
    6.2534   -0.1073    0.9528 C   0  0  0  0  0  0  0  0  0  0  0  0
    0.0023   -0.8958   -0.3400 C   0  0  0  0  0  0  0  0  0  0  0  0
   -1.6755   -2.3583   -1.5826 C   0  0  0  0  0  0  0  0  0  0  0  0
   -2.2816   -1.4483    0.6710 C   0  0  0  0  0  0  0  0  0  0  0  0
    7.5152    0.5063    0.5627 N   0  0  0  0  0  0  0  0  0  0  0  0
    8.3411    1.1209    1.4810 C   0  0  0  0  0  0  0  0  0  0  0  0
    8.0937    1.1273    2.6872 O   0  0  0  0  0  0  0  0  0  0  0  0
    9.6625    1.6932    0.9134 C   0  0  0  0  0  0  0  0  0  0  0  0
   10.4987    2.2142    2.0246 N   0  0  0  0  0  0  0  0  0  0  0  0
    9.4663    2.7371   -0.1960 C   0  0  0  0  0  0  0  0  0  0  0  0
    8.6469    4.2712    0.3600 S   0  0  0  0  0  0  0  0  0  0  0  0
   -7.9834    2.9728   -0.1496 C   0  0  0  0  0  0  0  0  0  0  0  0
   -9.0676    3.4322   -0.4965 O   0  0  0  0  0  0  0  0  0  0  0  0
   -7.2602    3.4627    1.0740 C   0  0  0  0  0  0  0  0  0  0  0  0
   -7.6290   -1.0243   -2.3676 N   0  0  0  0  0  0  0  0  0  0  0  0
   -8.0170   -2.3676   -2.0343 C   0  0  0  0  0  0  0  0  0  0  0  0
   -6.3019    1.8579   -0.5701 H   0  0  0  0  0  0  0  0  0  0  0  0
   -8.5334    2.0708   -2.5028 H   0  0  0  0  0  0  0  0  0  0  0  0
   -6.9669    1.1542   -4.1184 H   0  0  0  0  0  0  0  0  0  0  0  0
   -6.2053    2.5031   -3.2713 H   0  0  0  0  0  0  0  0  0  0  0  0
   -2.0821    0.9525   -0.5787 H   0  0  0  0  0  0  0  0  0  0  0  0
   -1.4696    0.4087   -2.1460 H   0  0  0  0  0  0  0  0  0  0  0  0
    1.0727    0.5852    0.3641 H   0  0  0  0  0  0  0  0  0  0  0  0
    0.6591   -0.9466    2.0500 H   0  0  0  0  0  0  0  0  0  0  0  0
    1.6753   -2.3166    3.5584 H   0  0  0  0  0  0  0  0  0  0  0  0
    1.0677   -3.6543    2.5688 H   0  0  0  0  0  0  0  0  0  0  0  0
    3.4572   -3.9435    2.7982 H   0  0  0  0  0  0  0  0  0  0  0  0
    3.1400   -3.4961    1.1155 H   0  0  0  0  0  0  0  0  0  0  0  0
    5.4326   -3.1360    1.2023 H   0  0  0  0  0  0  0  0  0  0  0  0
    7.3287   -1.9223    1.4911 H   0  0  0  0  0  0  0  0  0  0  0  0
    6.5915   -1.0843    2.8601 H   0  0  0  0  0  0  0  0  0  0  0  0
    5.7296   -0.3561    0.0222 H   0  0  0  0  0  0  0  0  0  0  0  0
    5.6530    0.6389    1.4841 H   0  0  0  0  0  0  0  0  0  0  0  0
    0.5308   -0.7013   -1.2825 H   0  0  0  0  0  0  0  0  0  0  0  0
   -2.7315   -2.5253   -1.8310 H   0  0  0  0  0  0  0  0  0  0  0  0
   -1.3126   -3.2900   -1.1406 H   0  0  0  0  0  0  0  0  0  0  0  0
   -1.1363   -2.1932   -2.5229 H   0  0  0  0  0  0  0  0  0  0  0  0
   -1.9233   -2.3638    1.1565 H   0  0  0  0  0  0  0  0  0  0  0  0
   -3.3516   -1.5874    0.4702 H   0  0  0  0  0  0  0  0  0  0  0  0
   -2.1880   -0.6257    1.3911 H   0  0  0  0  0  0  0  0  0  0  0  0
    7.7155    0.5714   -0.4243 H   0  0  0  0  0  0  0  0  0  0  0  0
   10.2032    0.8379    0.4887 H   0  0  0  0  0  0  0  0  0  0  0  0
   10.2368    1.6771    2.8627 H   0  0  0  0  0  0  0  0  0  0  0  0
   10.1494    3.1511    2.2488 H   0  0  0  0  0  0  0  0  0  0  0  0
    8.8764    2.3271   -1.0229 H   0  0  0  0  0  0  0  0  0  0  0  0
   10.4406    3.0197   -0.6117 H   0  0  0  0  0  0  0  0  0  0  0  0
    8.7165    4.9116   -0.8139 H   0  0  0  0  0  0  0  0  0  0  0  0
   -7.9807    3.8858    1.7784 H   0  0  0  0  0  0  0  0  0  0  0  0
   -6.7411    2.6378    1.5721 H   0  0  0  0  0  0  0  0  0  0  0  0
   -6.5375    4.2287    0.7804 H   0  0  0  0  0  0  0  0  0  0  0  0
   -6.6308   -0.8449   -2.4884 H   0  0  0  0  0  0  0  0  0  0  0  0
   -7.8000   -2.5528   -0.9792 H   0  0  0  0  0  0  0  0  0  0  0  0
   -9.0863   -2.5086   -2.2174 H   0  0  0  0  0  0  0  0  0  0  0  0
   -7.4372   -3.0559   -2.6534 H   0  0  0  0  0  0  0  0  0  0  0  0
  1  2  1  0
  2  3  1  0
  3  4  2  0
  2  5  1  0
  5  6  1  0
  6 19  1  0
 19  7  2  0
 19  8  1  0
 19  9  1  0
  8 10  1  0
 10 11  1  0
 11 24  1  0
 11 25  1  0
 11 26  1  0
 24 12  1  0
 24 13  1  0
 12 15  2  0
 12 14  1  0
 14 16  1  0
 16 17  1  0
 17 18  1  0
 18 21  2  0
 18 20  1  0
 20 22  1  0
 22 23  1  0
 23 27  1  0
 27 28  1  0
 28 29  2  0
 28 30  1  0
 30 31  1  0
 30 32  1  0
 32 33  1  0
 34 35  2  0
 34 36  1  0
 34  1  1  0
  3 37  1  0
 37 38  1  0
  1 39  1  0
  2 40  1  0
  5 41  1  0
  5 42  1  0
 10 43  1  0
 10 44  1  0
 13 45  1  0
 14 46  1  0
 16 47  1  0
 16 48  1  0
 17 49  1  0
 17 50  1  0
 20 51  1  0
 22 52  1  0
 22 53  1  0
 23 54  1  0
 23 55  1  0
 24 56  1  0
 25 57  1  0
 25 58  1  0
 25 59  1  0
 26 60  1  0
 26 61  1  0
 26 62  1  0
 27 63  1  0
 30 64  1  0
 31 65  1  0
 31 66  1  0
 32 67  1  0
 32 68  1  0
 33 69  1  0
 36 70  1  0
 36 71  1  0
 36 72  1  0
 37 73  1  0
 38 74  1  0
 38 75  1  0
 38 76  1  0
M  CHG  1   9  -1
M  END
>  <atom.dprop.PartialCharge>  (1) 
-0.53795259210526325 -0.011352592105263206 0.6390474078947368 -0.66015259210526323 0.1793474078947368 -0.58525259210526326 -0.82555259210526322 -0.57325259210526325 -0.82555259210526322
0.18734740789473681 -0.090052592105263202 0.61304740789473677 -0.5968525921052632 -0.51095259210526323 -0.65015259210526322 0.082947407894736799 -0.1674525921052632 0.66404740789473682
1.4427474078947369 -0.55995259210526316 -0.66115259210526323 0.0679474078947368 0.079947407894736797 0.075047407894736795 -0.089652592105263204 -0.089652592105263204 -0.54095259210526325
0.59804740789473676 -0.61315259210526318 0.1154474078947368 -0.89985259210526325 0.0016474078947367934 -0.34795259210526319 0.66004740789473682 -0.61515259210526319 -0.17315259210526321
-0.54695259210526326 0.07924740789473679 0.31044740789473679 0.1196474078947368 0.046647407894736793 0.046647407894736793 0.039147407894736794 0.039147407894736794 0.40494740789473682
0.33744740789473682 0.074147407894736797 0.074147407894736797 0.0776474078947368 0.0776474078947368 0.33544740789473682 0.045647407894736793 0.045647407894736793 0.071647407894736795
0.071647407894736795 0.099647407894736792 0.040480407894736795 0.040480407894736795 0.040480407894736795 0.040480407894736795 0.040480407894736795 0.040480407894736795 0.3234474078947368
0.1066474078947368 0.3602474078947368 0.3602474078947368 0.072147407894736795 0.072147407894736795 0.18874740789473679 0.062647407894736801 0.062647407894736801 0.062647407894736801
0.34944740789473677 0.034980407894736797 0.034980407894736797 0.034980407894736797

$$$$
