
     RDKit          3D

 76 75  0  0  0  0  0  0  0  0999 V2000
   -8.1897    2.3396   -0.7419 N   0  0  0  0  0  0  0  0  0  0  0  0
   -7.4321    1.8199   -1.8823 C   0  0  0  0  0  0  0  0  0  0  0  0
   -7.3819    0.2741   -1.7852 C   0  0  0  0  0  0  0  0  0  0  0  0
   -8.0219   -0.3634   -0.9447 O   0  0  0  0  0  0  0  0  0  0  0  0
   -6.0435    2.4505   -1.9070 C   0  0  0  0  0  0  0  0  0  0  0  0
   -5.3288    2.0699   -0.7453 O   0  0  0  0  0  0  0  0  0  0  0  0
   -3.3554    3.0456    0.5204 O   0  0  0  0  0  0  0  0  0  0  0  0
   -3.2387    0.7785   -0.6308 O   0  0  0  0  0  0  0  0  0  0  0  0
   -3.2964    2.8408   -2.1081 O   0  0  0  0  0  0  0  0  0  0  0  0
   -1.8370    0.6017   -0.7024 C   0  0  0  0  0  0  0  0  0  0  0  0
   -1.4061   -0.7936   -0.1837 C   0  0  0  0  0  0  0  0  0  0  0  0
    0.7100   -2.3053   -0.0017 C   0  0  0  0  0  0  0  0  0  0  0  0
    0.8440    0.0614    0.3981 O   0  0  0  0  0  0  0  0  0  0  0  0
    1.1811   -2.3714    1.2942 N   0  0  0  0  0  0  0  0  0  0  0  0
    0.7555   -3.2545   -0.7822 O   0  0  0  0  0  0  0  0  0  0  0  0
    1.8596   -3.5292    1.8307 C   0  0  0  0  0  0  0  0  0  0  0  0
    3.2686   -3.7028    1.2786 C   0  0  0  0  0  0  0  0  0  0  0  0
    4.2465   -2.6995    1.8469 C   0  0  0  0  0  0  0  0  0  0  0  0
   -3.7300    2.3310   -0.7548 P   0  0  0  0  0  5  0  0  0  0  0  0
    5.4405   -2.6658    1.1555 N   0  0  0  0  0  0  0  0  0  0  0  0
    4.0299   -2.0061    2.8333 O   0  0  0  0  0  0  0  0  0  0  0  0
    6.5275   -1.7837    1.5378 C   0  0  0  0  0  0  0  0  0  0  0  0
    6.2259   -0.3015    1.2679 C   0  0  0  0  0  0  0  0  0  0  0  0
    0.1318   -0.9217   -0.3745 C   0  0  0  0  0  0  0  0  0  0  0  0
   -2.1455   -1.8801   -0.9915 C   0  0  0  0  0  0  0  0  0  0  0  0
   -1.8160   -0.9233    1.2962 C   0  0  0  0  0  0  0  0  0  0  0  0
    7.3860    0.4670    0.8421 N   0  0  0  0  0  0  0  0  0  0  0  0
    8.5140    0.5763    1.6204 C   0  0  0  0  0  0  0  0  0  0  0  0
    8.6245   -0.0086    2.7012 O   0  0  0  0  0  0  0  0  0  0  0  0
    9.6110    1.5502    1.1281 C   0  0  0  0  0  0  0  0  0  0  0  0
    9.5786    2.7834    1.9404 N   0  0  0  0  0  0  0  0  0  0  0  0
    9.6252    1.8289   -0.3863 C   0  0  0  0  0  0  0  0  0  0  0  0
    8.2980    2.9523   -0.9766 S   0  0  0  0  0  0  0  0  0  0  0  0
   -9.5375    2.5843   -0.8052 C   0  0  0  0  0  0  0  0  0  0  0  0
  -10.1909    2.5781   -1.8445 O   0  0  0  0  0  0  0  0  0  0  0  0
  -10.1676    2.8923    0.5257 C   0  0  0  0  0  0  0  0  0  0  0  0
   -6.6310   -0.3609   -2.7653 N   0  0  0  0  0  0  0  0  0  0  0  0
   -6.3924   -1.7811   -2.6906 C   0  0  0  0  0  0  0  0  0  0  0  0
   -7.7773    2.1253    0.1606 H   0  0  0  0  0  0  0  0  0  0  0  0
   -7.9655    2.0709   -2.8082 H   0  0  0  0  0  0  0  0  0  0  0  0
   -5.5074    2.1413   -2.8083 H   0  0  0  0  0  0  0  0  0  0  0  0
   -6.1304    3.5427   -1.9170 H   0  0  0  0  0  0  0  0  0  0  0  0
   -1.3487    1.3918   -0.1213 H   0  0  0  0  0  0  0  0  0  0  0  0
   -1.5415    0.7193   -1.7507 H   0  0  0  0  0  0  0  0  0  0  0  0
    0.7153    0.9280   -0.0302 H   0  0  0  0  0  0  0  0  0  0  0  0
    1.2818   -1.4683    1.7598 H   0  0  0  0  0  0  0  0  0  0  0  0
    1.8607   -3.4312    2.9218 H   0  0  0  0  0  0  0  0  0  0  0  0
    1.2590   -4.4104    1.5734 H   0  0  0  0  0  0  0  0  0  0  0  0
    3.6403   -4.6989    1.5455 H   0  0  0  0  0  0  0  0  0  0  0  0
    3.2697   -3.6321    0.1831 H   0  0  0  0  0  0  0  0  0  0  0  0
    5.5528   -3.2475    0.3348 H   0  0  0  0  0  0  0  0  0  0  0  0
    7.4066   -2.1203    0.9761 H   0  0  0  0  0  0  0  0  0  0  0  0
    6.7287   -1.9328    2.6043 H   0  0  0  0  0  0  0  0  0  0  0  0
    5.4936   -0.2016    0.4586 H   0  0  0  0  0  0  0  0  0  0  0  0
    5.8129    0.1761    2.1615 H   0  0  0  0  0  0  0  0  0  0  0  0
    0.4087   -0.7537   -1.4217 H   0  0  0  0  0  0  0  0  0  0  0  0
   -3.2344   -1.7695   -0.9123 H   0  0  0  0  0  0  0  0  0  0  0  0
   -1.9032   -2.8862   -0.6300 H   0  0  0  0  0  0  0  0  0  0  0  0
   -1.8828   -1.8310   -2.0538 H   0  0  0  0  0  0  0  0  0  0  0  0
   -1.5538   -1.9067    1.7024 H   0  0  0  0  0  0  0  0  0  0  0  0
   -2.8990   -0.8122    1.4195 H   0  0  0  0  0  0  0  0  0  0  0  0
   -1.3298   -0.1615    1.9162 H   0  0  0  0  0  0  0  0  0  0  0  0
    7.1990    1.2387    0.2071 H   0  0  0  0  0  0  0  0  0  0  0  0
   10.5567    1.0347    1.3503 H   0  0  0  0  0  0  0  0  0  0  0  0
    9.4919    2.5132    2.9234 H   0  0  0  0  0  0  0  0  0  0  0  0
    8.7287    3.3066    1.7193 H   0  0  0  0  0  0  0  0  0  0  0  0
    9.5461    0.8956   -0.9581 H   0  0  0  0  0  0  0  0  0  0  0  0
   10.5759    2.2966   -0.6620 H   0  0  0  0  0  0  0  0  0  0  0  0
    8.7142    3.0075   -2.2507 H   0  0  0  0  0  0  0  0  0  0  0  0
  -10.7363    3.8226    0.4445 H   0  0  0  0  0  0  0  0  0  0  0  0
  -10.8442    2.0773    0.7999 H   0  0  0  0  0  0  0  0  0  0  0  0
   -9.4170    3.0159    1.3086 H   0  0  0  0  0  0  0  0  0  0  0  0
   -5.9124    0.1853   -3.2309 H   0  0  0  0  0  0  0  0  0  0  0  0
   -5.6369   -1.9699   -1.9240 H   0  0  0  0  0  0  0  0  0  0  0  0
   -7.3151   -2.3104   -2.4348 H   0  0  0  0  0  0  0  0  0  0  0  0
   -6.0231   -2.1187   -3.6659 H   0  0  0  0  0  0  0  0  0  0  0  0
  1  2  1  0
  2  3  1  0
  3  4  2  0
  2  5  1  0
  5  6  1  0
  6 19  1  0
 19  7  2  0
 19  8  1  0
 19  9  1  0
  8 10  1  0
 10 11  1  0
 11 24  1  0
 11 25  1  0
 11 26  1  0
 24 12  1  0
 24 13  1  0
 12 15  2  0
 12 14  1  0
 14 16  1  0
 16 17  1  0
 17 18  1  0
 18 21  2  0
 18 20  1  0
 20 22  1  0
 22 23  1  0
 23 27  1  0
 27 28  1  0
 28 29  2  0
 28 30  1  0
 30 31  1  0
 30 32  1  0
 32 33  1  0
 34 35  2  0
 34 36  1  0
 34  1  1  0
  3 37  1  0
 37 38  1  0
  1 39  1  0
  2 40  1  0
  5 41  1  0
  5 42  1  0
 10 43  1  0
 10 44  1  0
 13 45  1  0
 14 46  1  0
 16 47  1  0
 16 48  1  0
 17 49  1  0
 17 50  1  0
 20 51  1  0
 22 52  1  0
 22 53  1  0
 23 54  1  0
 23 55  1  0
 24 56  1  0
 25 57  1  0
 25 58  1  0
 25 59  1  0
 26 60  1  0
 26 61  1  0
 26 62  1  0
 27 63  1  0
 30 64  1  0
 31 65  1  0
 31 66  1  0
 32 67  1  0
 32 68  1  0
 33 69  1  0
 36 70  1  0
 36 71  1  0
 36 72  1  0
 37 73  1  0
 38 74  1  0
 38 75  1  0
 38 76  1  0
M  CHG  1   9  -1
M  END
>  <atom.dprop.PartialCharge>  (1) 
-0.53795259210526325 -0.011352592105263206 0.6390474078947368 -0.66015259210526323 0.1793474078947368 -0.58525259210526326 -0.82555259210526322 -0.57325259210526325 -0.82555259210526322
0.18734740789473681 -0.090052592105263202 0.61304740789473677 -0.5968525921052632 -0.51095259210526323 -0.65015259210526322 0.082947407894736799 -0.1674525921052632 0.66404740789473682
1.4427474078947369 -0.55995259210526316 -0.66115259210526323 0.0679474078947368 0.079947407894736797 0.075047407894736795 -0.089652592105263204 -0.089652592105263204 -0.54095259210526325
0.59804740789473676 -0.61315259210526318 0.1154474078947368 -0.89985259210526325 0.0016474078947367934 -0.34795259210526319 0.66004740789473682 -0.61515259210526319 -0.17315259210526321
-0.54695259210526326 0.07924740789473679 0.31044740789473679 0.1196474078947368 0.046647407894736793 0.046647407894736793 0.039147407894736794 0.039147407894736794 0.40494740789473682
0.33744740789473682 0.074147407894736797 0.074147407894736797 0.0776474078947368 0.0776474078947368 0.33544740789473682 0.045647407894736793 0.045647407894736793 0.071647407894736795
0.071647407894736795 0.099647407894736792 0.040480407894736795 0.040480407894736795 0.040480407894736795 0.040480407894736795 0.040480407894736795 0.040480407894736795 0.3234474078947368
0.1066474078947368 0.3602474078947368 0.3602474078947368 0.072147407894736795 0.072147407894736795 0.18874740789473679 0.062647407894736801 0.062647407894736801 0.062647407894736801
0.34944740789473677 0.034980407894736797 0.034980407894736797 0.034980407894736797

$$$$
